[General]
network = LoadBalancingExperiment.networks.SingleServerNetwork

**.numClients = 5
**.numServers = 3
**.loadBalancer.numGates = 5
sim-time-limit = 100s
**.SimpleClient.sendInterval = uniform(1, 3)
**.SimpleServer.processingTime = 0.5
